Version 4
SHEET 1 880 680
WIRE 128 288 112 288
WIRE 304 288 208 288
WIRE 112 320 112 288
WIRE 304 320 224 320
WIRE 464 336 384 336
WIRE 704 336 464 336
WIRE 224 464 224 320
WIRE 304 464 224 464
WIRE 464 464 464 336
WIRE 464 464 384 464
WIRE 704 464 704 416
WIRE 224 560 224 544
WIRE 704 560 704 544
WIRE 704 560 224 560
WIRE 224 592 224 560
FLAG -80 384 0
FLAG 32 304 0
FLAG 112 320 0
FLAG -80 304 V+
FLAG 384 272 V+
FLAG 384 304 V-
FLAG 32 384 V-
FLAG 224 592 0
SYMBOL OP27G 336 304 R0
SYMATTR InstName U1
SYMBOL res 400 448 R90
WINDOW 0 0 56 VBottom 2
WINDOW 3 32 56 VTop 2
SYMATTR InstName R2
SYMATTR Value 60k
SYMBOL res 688 320 R0
SYMATTR InstName R3
SYMATTR Value 100000
SYMBOL res 688 448 R0
SYMATTR InstName R4
SYMATTR Value 10
SYMBOL voltage -80 288 R0
SYMATTR InstName V1
SYMATTR Value 12
SYMBOL voltage 32 288 R0
SYMATTR InstName V2
SYMATTR Value 12
SYMBOL voltage 224 288 R90
WINDOW 0 -32 56 VBottom 2
WINDOW 3 32 56 VTop 2
SYMATTR InstName V3
SYMATTR Value ""
SYMATTR Value2 AC 1
SYMBOL res 208 448 R0
SYMATTR InstName R1
SYMATTR Value 10k
TEXT -48 48 Left 2 !.ac dec 100 1 20MEG
