Version 4
SHEET 1 3908 1340
WIRE -80 400 -288 400
WIRE 176 400 0 400
WIRE 288 432 240 432
WIRE 384 432 368 432
WIRE 464 432 432 432
WIRE 1360 480 1328 480
WIRE 1664 496 1632 496
WIRE 528 512 496 512
WIRE 640 512 624 512
WIRE 1232 512 1168 512
WIRE 1344 512 1312 512
WIRE 1360 512 1344 512
WIRE 2160 512 2128 512
WIRE 1072 528 880 528
WIRE 1472 528 1440 528
WIRE 1504 528 1472 528
WIRE 1648 528 1584 528
WIRE 1664 528 1648 528
WIRE -288 544 -288 400
WIRE -288 544 -336 544
WIRE -80 544 -288 544
WIRE 176 544 176 400
WIRE 176 544 -16 544
WIRE 240 544 240 432
WIRE 240 544 176 544
WIRE 352 544 240 544
WIRE 464 544 464 432
WIRE 464 544 432 544
WIRE 480 544 464 544
WIRE 528 544 480 544
WIRE 672 544 624 544
WIRE 784 544 672 544
WIRE 1200 544 1168 544
WIRE 1776 544 1744 544
WIRE 1792 544 1776 544
WIRE 1936 544 1872 544
WIRE 2000 544 1936 544
WIRE 2144 544 2080 544
WIRE 2160 544 2144 544
WIRE 912 560 880 560
WIRE 1072 560 1008 560
WIRE 2272 560 2240 560
WIRE 2304 560 2272 560
WIRE 784 576 720 576
WIRE 1232 608 1168 608
WIRE 1936 608 1936 544
WIRE -416 624 -416 544
WIRE 944 624 880 624
WIRE 1472 624 1472 528
WIRE 1504 624 1472 624
WIRE 1200 640 1200 544
WIRE 1200 640 1168 640
WIRE 1344 640 1344 512
WIRE 1360 640 1344 640
WIRE 1472 640 1472 624
WIRE 1472 640 1440 640
WIRE 912 656 912 560
WIRE 912 656 880 656
WIRE 1648 656 1648 528
WIRE 1664 656 1648 656
WIRE 1776 656 1776 544
WIRE 1776 656 1744 656
WIRE 2144 672 2144 544
WIRE 2160 672 2144 672
WIRE 2272 672 2272 560
WIRE 2272 672 2240 672
WIRE 480 704 480 544
WIRE 528 704 480 704
WIRE 672 704 672 544
WIRE 672 704 608 704
WIRE 1200 704 1200 640
WIRE 128 720 128 656
WIRE 912 720 912 656
WIRE 1232 720 1232 608
WIRE 944 736 944 624
WIRE 1344 752 1344 640
WIRE 1360 752 1344 752
WIRE 1504 752 1504 624
WIRE 1936 752 1936 688
WIRE 1936 752 1888 752
WIRE 1984 752 1936 752
WIRE -240 800 -240 784
WIRE -112 800 -112 784
WIRE 1888 800 1888 752
WIRE 1984 800 1984 752
WIRE 16 832 16 800
WIRE 1232 832 1232 800
WIRE 944 848 944 816
WIRE -240 896 -240 880
WIRE -112 896 -112 880
WIRE 1888 896 1888 864
WIRE 1936 896 1888 896
WIRE 1984 896 1984 864
WIRE 1984 896 1936 896
WIRE 16 928 16 912
WIRE 128 928 128 896
WIRE 1936 944 1936 896
WIRE 16 1024 16 1008
WIRE 1936 1088 1936 1024
FLAG 2304 560 Vout
IOPIN 2304 560 Out
FLAG -416 624 0
FLAG -288 608 0
FLAG 176 608 0
FLAG 16 912 V+
FLAG 16 1024 0
FLAG 128 896 0
FLAG 128 1008 V-
FLAG 720 576 0
FLAG 944 848 0
FLAG 912 720 0
FLAG 784 608 Vlow+
FLAG 784 640 Vlow-
FLAG -112 896 0
FLAG 16 832 0
FLAG 128 656 0
FLAG 16 720 Vlow+
FLAG 128 800 Vlow-
FLAG 1008 560 0
FLAG 1232 832 0
FLAG 1200 704 0
FLAG 1072 592 Vlow+
FLAG 1072 624 Vlow-
FLAG 528 576 V+
FLAG 640 512 V-
FLAG 496 512 0
FLAG 1328 480 0
FLAG 1440 464 V+
FLAG 1440 496 V-
FLAG 1632 496 0
FLAG 1744 480 V+
FLAG 1744 512 V-
FLAG 2128 512 0
FLAG 2240 496 V+
FLAG 2240 528 V-
FLAG 1936 1088 0
FLAG -112 784 Total_gain
FLAG 880 592 Laser_Gain
FLAG 1168 576 Total_Gain
FLAG -240 896 0
FLAG -240 784 Laser_Gain
SYMBOL voltage -320 544 R90
WINDOW 0 -32 56 VBottom 2
WINDOW 3 32 56 VTop 2
SYMATTR InstName V1
SYMATTR Value ""
SYMATTR Value2 AC 1
SYMBOL cap -304 544 R0
SYMATTR InstName C1
SYMATTR Value 200p
SYMBOL ind -96 416 R270
WINDOW 0 32 56 VTop 2
WINDOW 3 5 56 VBottom 2
SYMATTR InstName L1
SYMATTR Value 1.2µ
SYMBOL cap -16 528 R90
WINDOW 0 0 32 VBottom 2
WINDOW 3 32 32 VTop 2
SYMATTR InstName C2
SYMATTR Value 47p
SYMBOL cap 160 544 R0
SYMATTR InstName C3
SYMATTR Value 200p
SYMBOL voltage 16 912 R0
SYMATTR InstName V2
SYMATTR Value 15
SYMBOL voltage 128 912 R0
SYMATTR InstName V3
SYMATTR Value 15
SYMBOL res 448 528 R90
WINDOW 0 0 56 VBottom 2
WINDOW 3 32 56 VTop 2
SYMATTR InstName R2
SYMATTR Value 316
SYMBOL cap 432 416 R90
WINDOW 0 0 32 VBottom 2
WINDOW 3 32 32 VTop 2
SYMATTR InstName C4
SYMATTR Value 1n
SYMBOL res 384 416 R90
WINDOW 0 0 56 VBottom 2
WINDOW 3 32 56 VTop 2
SYMATTR InstName R3
SYMATTR Value 100
SYMBOL AD602 832 592 R0
SYMATTR InstName U2
SYMBOL res 928 720 R0
SYMATTR InstName R4
SYMATTR Value 10k
SYMBOL voltage -112 784 R0
SYMATTR InstName V5
SYMATTR Value 0
SYMBOL voltage 16 704 R0
SYMATTR InstName V6
SYMATTR Value 5
SYMBOL voltage 128 704 R0
SYMATTR InstName V7
SYMATTR Value 5
SYMBOL AD602 1120 576 R0
SYMATTR InstName U3
SYMBOL res 1216 704 R0
SYMATTR InstName R5
SYMATTR Value 10k
SYMBOL AD829J 576 544 R0
SYMATTR InstName U1
SYMBOL res 624 688 R90
WINDOW 0 0 56 VBottom 2
WINDOW 3 32 56 VTop 2
SYMATTR InstName R1
SYMATTR Value 200
SYMBOL OP27G 1392 496 R0
SYMATTR InstName U4
SYMBOL res 1328 496 R90
WINDOW 0 0 56 VBottom 2
WINDOW 3 32 56 VTop 2
SYMATTR InstName R6
SYMATTR Value 4.99k
SYMBOL res 1456 624 R90
WINDOW 0 0 56 VBottom 2
WINDOW 3 32 56 VTop 2
SYMATTR InstName R7
SYMATTR Value 430k
SYMBOL res 1456 736 R90
WINDOW 0 0 56 VBottom 2
WINDOW 3 32 56 VTop 2
SYMATTR InstName R8
SYMATTR Value 4870
SYMBOL cap 1504 736 R90
WINDOW 0 0 32 VBottom 2
WINDOW 3 32 32 VTop 2
SYMATTR InstName C5
SYMATTR Value 10n
SYMBOL res 1760 640 R90
WINDOW 0 0 56 VBottom 2
WINDOW 3 32 56 VTop 2
SYMATTR InstName R9
SYMATTR Value 3.16k
SYMBOL AD847J 1696 512 R0
SYMATTR InstName U5
SYMBOL res 1600 512 R90
WINDOW 0 0 56 VBottom 2
WINDOW 3 32 56 VTop 2
SYMATTR InstName R10
SYMATTR Value 3k
SYMBOL res 2256 656 R90
WINDOW 0 0 56 VBottom 2
WINDOW 3 32 56 VTop 2
SYMATTR InstName R11
SYMATTR Value 7500
SYMBOL AD847J 2192 528 R0
SYMATTR InstName U6
SYMBOL res 1888 528 R90
WINDOW 0 0 56 VBottom 2
WINDOW 3 32 56 VTop 2
SYMATTR InstName R12
SYMATTR Value 3.74k
SYMBOL res 2096 528 R90
WINDOW 0 0 56 VBottom 2
WINDOW 3 32 56 VTop 2
SYMATTR InstName R13
SYMATTR Value 3.74k
SYMBOL res 1952 1040 R180
WINDOW 0 36 76 Left 0
WINDOW 3 36 40 Left 0
SYMATTR InstName R14
SYMATTR Value 50
SYMBOL cap 1872 800 R0
SYMATTR InstName C6
SYMATTR Value 470p
SYMBOL cap 1968 800 R0
SYMATTR InstName C7
SYMATTR Value 120p
SYMBOL ind 1920 592 R0
SYMATTR InstName L2
SYMATTR Value 3.3m
SYMBOL voltage -240 784 R0
SYMATTR InstName V4
SYMATTR Value 0
TEXT -376 352 Left 2 !.ac dec 1k 1 103k
